
 ANSYS Mechanical Enterprise                       


 *------------------------------------------------------------------*
 |                                                                  |
 |   W E L C O M E   T O   T H E   A N S Y S (R)  P R O G R A M     |
 |                                                                  |
 *------------------------------------------------------------------*




 ***************************************************************
 *            ANSYS Release 19.0     LEGAL NOTICES             *
 ***************************************************************
 *                                                             *
 * Copyright 1971-2017 ANSYS, Inc.  All rights reserved.       *
 * Unauthorized use, distribution or duplication is            *
 * prohibited.                                                 *
 *                                                             *
 * Ansys is a registered trademark of ANSYS, Inc. or its       *
 * subsidiaries in the United States or other countries.       *
 * See the ANSYS, Inc. online documentation or the ANSYS, Inc. *
 * documentation CD or online help for the complete Legal      *
 * Notice.                                                     *
 *                                                             *
 ***************************************************************
 *                                                             *
 * THIS ANSYS SOFTWARE PRODUCT AND PROGRAM DOCUMENTATION       *
 * INCLUDE TRADE SECRETS AND CONFIDENTIAL AND PROPRIETARY      *
 * PRODUCTS OF ANSYS, INC., ITS SUBSIDIARIES, OR LICENSORS.    *
 * The software products and documentation are furnished by    *
 * ANSYS, Inc. or its subsidiaries under a software license    *
 * agreement that contains provisions concerning               *
 * non-disclosure, copying, length and nature of use,          *
 * compliance with exporting laws, warranties, disclaimers,    *
 * limitations of liability, and remedies, and other           *
 * provisions.  The software products and documentation may be *
 * used, disclosed, transferred, or copied only in accordance  *
 * with the terms and conditions of that software license      *
 * agreement.                                                  *
 *                                                             *
 * ANSYS, Inc. is a UL registered                              *
 * ISO 9001:2008 company.                                      *
 *                                                             *
 ***************************************************************
 *                                                             *
 * This product is subject to U.S. laws governing export and   *
 * re-export.                                                  *
 *                                                             *
 * For U.S. Government users, except as specifically granted   *
 * by the ANSYS, Inc. software license agreement, the use,     *
 * duplication, or disclosure by the United States Government  *
 * is subject to restrictions stated in the ANSYS, Inc.        *
 * software license agreement and FAR 12.212 (for non-DOD      *
 * licenses).                                                  *
 *                                                             *
 ***************************************************************

 Release 19.0
     
 Point Releases and Patches installed:   
     
 ANSYS, Inc. Products Release 19.0   
 SpaceClaim Release 19.0 
 AIM Release 19.0
 Autodyn Release 19.0
 LS-DYNA Release 19.0
 CFX (includes CFD-Post) Release 19.0
 Chemkin Release 19.0
 EnSight Release 19.0
 FENSAP-ICE Release 19.0 
 Fluent (includes CFD-Post) Release 19.0 
 Forte Release 19.0  
 Polyflow (includes CFD-Post) Release 19.0   
 TurboGrid Release 19.0  
 ICEM CFD Release 19.0   
 Aqwa Release 19.0   
 Mechanical Products Release 19.0
 Icepak (includes CFD-Post) Release 19.0 
 ACIS Geometry Interface Release 19.0
 AutoCAD Geometry Interface Release 19.0 
 Catia, Version 4 Geometry Interface Release 19.0
 Catia, Version 6 Geometry Interface Release 19.0
 Creo Elements/Direct Modeling Geometry Interface Release 19.0   
 Creo Parametric Geometry Interface Release 19.0 
 Inventor Geometry Interface Release 19.0
 JTOpen Geometry Interface Release 19.0  
 NX Geometry Interface Release 19.0  
 Parasolid Geometry Interface  Release 19.0  
 Solid Edge Geometry Interface Release 19.0  
 SOLIDWORKS Geometry Interface Release 19.0  
 ANSYS, Inc. License Manager Release 19.0


          *****  ANSYS COMMAND LINE ARGUMENTS  *****
  BATCH MODE REQUESTED (-b)    = NOLIST
  INPUT FILE COPY MODE (-c)    = COPY
  DISTRIBUTED MEMORY PARALLEL REQUESTED
       2 PARALLEL PROCESSES REQUESTED WITH SINGLE THREAD PER PROCESS
    TOTAL OF     2 CORES REQUESTED
  MPI OPTION                   = INTELMPI
  INPUT FILE NAME              = C:\Users\tron1\AppData\Local\Temp\WB_DESKTOP-M5SM042_tron1_15552_2\_ProjectScratch\ScrC2AC\dummy.dat
  OUTPUT FILE NAME             = C:\Users\tron1\AppData\Local\Temp\WB_DESKTOP-M5SM042_tron1_15552_2\_ProjectScratch\ScrC2AC\solve.out
  START-UP FILE MODE           = NOREAD
  STOP FILE MODE               = NOREAD

 RELEASE= Release 19.0         BUILD= 19.0      UP20171214   VERSION=WINDOWS x64 
 CURRENT JOBNAME=file0  15:48:57  MAR 09, 2022 CP=      0.078


 PARAMETER _DS_PROGRESS =     999.0000000    

 /INPUT FILE= ds.dat  LINE=       0



 *** NOTE ***                            CP =       0.141   TIME= 15:48:57
 The /CONFIG,NOELDB command is not valid in a Distributed ANSYS          
 solution.  Command is ignored.                                          

 *GET  _WALLSTRT  FROM  ACTI  ITEM=TIME WALL  VALUE=  15.8158333    

 TITLE= 
 unsaved_project--Static Structural (B5)                                       


 SET PARAMETER DIMENSIONS ON  _WB_PROJECTSCRATCH_DIR
  TYPE=STRI  DIMENSIONS=      248        1        1

 PARAMETER _WB_PROJECTSCRATCH_DIR(1) = C:\Users\tron1\AppData\Local\Temp\WB_DESKTOP-M5SM042_tron1_15552_2\_ProjectScratch\ScrC2AC\

 SET PARAMETER DIMENSIONS ON  _WB_SOLVERFILES_DIR
  TYPE=STRI  DIMENSIONS=      248        1        1

 PARAMETER _WB_SOLVERFILES_DIR(1) = C:\Users\tron1\AppData\Local\Temp\WB_DESKTOP-M5SM042_tron1_15552_2\unsaved_project_files\dp0\SYS\MECH\

 SET PARAMETER DIMENSIONS ON  _WB_USERFILES_DIR
  TYPE=STRI  DIMENSIONS=      248        1        1

 PARAMETER _WB_USERFILES_DIR(1) = C:\Users\tron1\AppData\Local\Temp\WB_DESKTOP-M5SM042_tron1_15552_2\unsaved_project_files\user_files\
 --- Data in consistent uMKS units. See Solving Units in the help system for mor

 uMKS UNITS SPECIFIED FOR INTERNAL    
  LENGTH      = MICROMETERS (um)
  MASS        = KILOGRAM (kg)
  TIME        = SECONDS (sec)
  TEMPERATURE = CELSIUS (C)
  TOFFSET     = 273.0
  FORCE       = MICRONEWTON (uN)
  HEAT        = PICOJOULES (pJ)

 INPUT  UNITS ARE ALSO SET TO UMKS

 *** ANSYS - ENGINEERING ANALYSIS SYSTEM  RELEASE Release 19.0     19.0     ***
 DISTRIBUTED ANSYS Mechanical Enterprise                       

 00000000  VERSION=WINDOWS x64   15:48:57  MAR 09, 2022 CP=      0.172

 unsaved_project--Static Structural (B5)                                       



          ***** ANSYS ANALYSIS DEFINITION (PREP7) *****
 *********** Nodes for the whole assembly ***********
 *********** Nodes for all Remote Points ***********
 *********** Elements for Body 1 "Part 1" ***********
 *********** Elements for Body 2 "Part 2" ***********
 *********** Elements for Body 3 "Part 3" ***********
 *********** Elements for Body 4 "Part 4" ***********
 *********** Elements for Body 5 "Part 5" ***********
 *********** Elements for Body 6 "Part 6" ***********
 *********** Elements for Body 7 "Part 7" ***********
 *********** Elements for Body 8 "Part 8" ***********
 *********** Elements for Body 9 "Part 9" ***********
 *********** Elements for Body 10 "Part 10" ***********
 *********** Elements for Body 11 "Part 11" ***********
 *********** Elements for Body 12 "Part 12" ***********
 *********** Elements for Body 13 "Part 13" ***********
 *********** Send User Defined Coordinate System(s) ***********
 *********** Set Reference Temperature ***********
 *********** Send Materials ***********
 *********** Create Contact "Contact Region" ***********
             Real Constant Set For Above Contact Is 15 & 14
 *********** Create Contact "Contact Region 2" ***********
             Real Constant Set For Above Contact Is 17 & 16
 *********** Create Contact "Contact Region 3" ***********
             Real Constant Set For Above Contact Is 19 & 18
 *********** Create Contact "Contact Region 4" ***********
             Real Constant Set For Above Contact Is 21 & 20
 *********** Create Contact "Contact Region 5" ***********
             Real Constant Set For Above Contact Is 23 & 22
 *********** Create Contact "Contact Region 6" ***********
             Real Constant Set For Above Contact Is 25 & 24
 *********** Create Contact "Contact Region 7" ***********
             Real Constant Set For Above Contact Is 27 & 26
 *********** Create Contact "Contact Region 8" ***********
             Real Constant Set For Above Contact Is 29 & 28
 *********** Create Contact "Contact Region 9" ***********
             Real Constant Set For Above Contact Is 31 & 30
 *********** Create Contact "Contact Region 10" ***********
             Real Constant Set For Above Contact Is 33 & 32
 *********** Create Contact "Contact Region 11" ***********
             Real Constant Set For Above Contact Is 35 & 34
 *********** Create Contact "Contact Region 12" ***********
             Real Constant Set For Above Contact Is 37 & 36
 *********** Create Contact "Contact Region 13" ***********
             Real Constant Set For Above Contact Is 39 & 38
 *********** Create Contact "Contact Region 14" ***********
             Real Constant Set For Above Contact Is 41 & 40
 *********** Create Contact "Contact Region 15" ***********
             Real Constant Set For Above Contact Is 43 & 42
 *********** Create Contact "Contact Region 16" ***********
             Real Constant Set For Above Contact Is 45 & 44
 *********** Create Contact "Contact Region 17" ***********
             Real Constant Set For Above Contact Is 47 & 46
 *********** Create Contact "Contact Region 18" ***********
             Real Constant Set For Above Contact Is 49 & 48
 *********** Create Contact "Contact Region 19" ***********
             Real Constant Set For Above Contact Is 51 & 50
 *********** Create Contact "Contact Region 20" ***********
             Real Constant Set For Above Contact Is 53 & 52
 *********** Create Contact "Contact Region 21" ***********
             Real Constant Set For Above Contact Is 55 & 54
 *********** Create Contact "Contact Region 22" ***********
             Real Constant Set For Above Contact Is 57 & 56
 *********** Define Pressure Using Surface Effect Elements ***********
 *********** Define Force Using Surface Effect Elements ***********
 *********** Create Remote Point "Remote Point" ***********
 *********** Construct Weak Springs, Prototype 1 ***********
 *********** Construct Weak Springs, Prototype 2 ***********
 *********** Construct Weak Springs, Prototype 3 ***********
 *********** Construct Weak Springs, Prototype 4 ***********
 *********** Construct Weak Springs, Prototype 5 ***********
 *********** Construct Weak Springs, Prototype 6 ***********
 *********** Construct Weak Springs, Prototype 7 ***********
 *********** Construct Weak Springs, Prototype 8 ***********
 *********** Construct Weak Springs, Prototype 9 ***********
 *********** Construct Weak Springs, Prototype 10 ***********
 *********** Construct Weak Springs, Prototype 11 ***********
 *********** Construct Weak Springs, Prototype 12 ***********
 *********** Construct Weak Springs, Prototype 13 ***********


 ***** ROUTINE COMPLETED *****  CP =         0.391


 --- Number of total nodes = 34372
 --- Number of contact elements = 4564
 --- Number of spring elements = 312
 --- Number of bearing elements = 0
 --- Number of solid elements = 8647
 --- Number of condensed parts = 0
 --- Number of total elements = 13524

 *GET  _WALLBSOL  FROM  ACTI  ITEM=TIME WALL  VALUE=  15.8161111    
 ****************************************************************************
 *************************    SOLUTION       ********************************
 ****************************************************************************

 *****  ANSYS SOLUTION ROUTINE  *****


 PERFORM A STATIC ANALYSIS
  THIS WILL BE A NEW ANALYSIS

 USE SPARSE MATRIX DIRECT SOLVER

 CONTACT INFORMATION PRINTOUT LEVEL       1

 DO NOT COMBINE ELEMENT MATRIX FILES (.emat) AFTER DISTRIBUTED PARALLEL SOLUTION

 DO NOT COMBINE ELEMENT SAVE DATA FILES (.esav) AFTER DISTRIBUTED PARALLEL SOLUTION

 NLDIAG: Nonlinear diagnostics CONT option is set to ON. 
         Writing frequency : each ITERATION.

 DO NOT SAVE ANY RESTART FILES AT ALL
 ****************************************************
 ******************* SOLVE FOR LS 1 OF 1 ****************

 SELECT       FOR ITEM=TYPE COMPONENT=    
  IN RANGE        58 TO         58 STEP          1

        315  ELEMENTS (OF      13524  DEFINED) SELECTED BY  ESEL  COMMAND.

 SELECT      ALL NODES HAVING ANY ELEMENT IN ELEMENT SET.

     1060 NODES (OF    34372  DEFINED) SELECTED FROM
      315 SELECTED ELEMENTS BY NSLE COMMAND.

 GENERATE SURFACE LOAD PRES ON SURFACE DEFINED BY ALL SELECTED NODES
 SET ACCORDING TO TABLE PARAMETER = _LOADVARI159                    

 NUMBER OF PRES ELEMENT FACE LOADS STORED =        315

 ALL SELECT   FOR ITEM=NODE COMPONENT=    
  IN RANGE         1 TO      34372 STEP          1

      34372  NODES (OF      34372  DEFINED) SELECTED BY NSEL  COMMAND.

 ALL SELECT   FOR ITEM=ELEM COMPONENT=    
  IN RANGE         1 TO      13525 STEP          1

      13524  ELEMENTS (OF      13524  DEFINED) SELECTED BY  ESEL  COMMAND.

 SELECT       FOR ITEM=TYPE COMPONENT=    
  IN RANGE        59 TO         59 STEP          1

        315  ELEMENTS (OF      13524  DEFINED) SELECTED BY  ESEL  COMMAND.

 SELECT      ALL NODES HAVING ANY ELEMENT IN ELEMENT SET.

     1060 NODES (OF    34372  DEFINED) SELECTED FROM
      315 SELECTED ELEMENTS BY NSLE COMMAND.

 SPECIFIED SURFACE LOAD PRES FOR ALL SELECTED ELEMENTS  LKEY =  1   KVAL = 1
      SET ACCORDING TO TABLE PARAMETER = _LOADVARI150X                   

 SPECIFIED SURFACE LOAD PRES FOR ALL SELECTED ELEMENTS  LKEY =  2   KVAL = 1
      SET ACCORDING TO TABLE PARAMETER = _LOADVARI150Y                   

 SPECIFIED SURFACE LOAD PRES FOR ALL SELECTED ELEMENTS  LKEY =  3   KVAL = 1
      SET ACCORDING TO TABLE PARAMETER = _LOADVARI150Z                   

 ALL SELECT   FOR ITEM=NODE COMPONENT=    
  IN RANGE         1 TO      34372 STEP          1

      34372  NODES (OF      34372  DEFINED) SELECTED BY NSEL  COMMAND.

 ALL SELECT   FOR ITEM=ELEM COMPONENT=    
  IN RANGE         1 TO      13525 STEP          1

      13524  ELEMENTS (OF      13524  DEFINED) SELECTED BY  ESEL  COMMAND.

 ALL SELECT   FOR ITEM=ELEM COMPONENT=    
  IN RANGE         1 TO      13525 STEP          1

      13524  ELEMENTS (OF      13524  DEFINED) SELECTED BY  ESEL  COMMAND.

 PRINTOUT RESUMED BY /GOP

 USE       1 SUBSTEPS INITIALLY THIS LOAD STEP FOR ALL  DEGREES OF FREEDOM
 FOR AUTOMATIC TIME STEPPING:
   USE      1 SUBSTEPS AS A MAXIMUM
   USE      1 SUBSTEPS AS A MINIMUM

 TIME=  1.0000    

 ERASE THE CURRENT DATABASE OUTPUT CONTROL TABLE.


 WRITE ALL  ITEMS TO THE DATABASE WITH A FREQUENCY OF NONE
   FOR ALL APPLICABLE ENTITIES

 WRITE NSOL ITEMS TO THE DATABASE WITH A FREQUENCY OF ALL 
   FOR ALL APPLICABLE ENTITIES

 WRITE RSOL ITEMS TO THE DATABASE WITH A FREQUENCY OF ALL 
   FOR ALL APPLICABLE ENTITIES

 WRITE STRS ITEMS TO THE DATABASE WITH A FREQUENCY OF ALL 
   FOR ALL APPLICABLE ENTITIES

 WRITE EPEL ITEMS TO THE DATABASE WITH A FREQUENCY OF ALL 
   FOR ALL APPLICABLE ENTITIES

 WRITE EPPL ITEMS TO THE DATABASE WITH A FREQUENCY OF ALL 
   FOR ALL APPLICABLE ENTITIES

 NONLINEAR STABILIZATION CONTROL:
 KEY=OFF 


 *GET  ANSINTER_  FROM  ACTI  ITEM=INT        VALUE=  0.00000000    

 *IF  ANSINTER_                         ( =   0.00000     )  NE  
      0                                 ( =   0.00000     )  THEN    

 *ENDIF

 *** NOTE ***                            CP =       0.484   TIME= 15:48:58
 The automatic domain decomposition logic has selected the MESH domain   
 decomposition method with 2 processes per solution.                     

 *****  ANSYS SOLVE    COMMAND  *****

 *** WARNING ***                         CP =       0.484   TIME= 15:48:58
 Element shape checking is currently inactive.  Issue SHPP,ON or         
 SHPP,WARN to reactivate, if desired.                                    

 *** NOTE ***                            CP =       0.484   TIME= 15:48:58
 The model data was checked and warning messages were found.             
  Please review output or errors file (                                  
 C:\Users\tron1\AppData\Local\Temp\WB_DESKTOP-M5SM042_tron1_15552_2\_Pro 
 ojectScratch\ScrC2AC\file0.err ) for these warning messages.            

 *** SELECTION OF ELEMENT TECHNOLOGIES FOR APPLICABLE ELEMENTS ***
      --- GIVE SUGGESTIONS AND RESET THE KEY OPTIONS ---

 ELEMENT TYPE    1 IS SOLID186. KEYOPT(2)=0 IS SUGGESTED AND HAS BEEN RESET.
  KEYOPT(1-12)=    0    0    0    0    0    0    0    0    0    0    0    0

 ELEMENT TYPE    2 IS SOLID186. KEYOPT(2)=0 IS SUGGESTED AND HAS BEEN RESET.
  KEYOPT(1-12)=    0    0    0    0    0    0    0    0    0    0    0    0

 ELEMENT TYPE    3 IS SOLID186. KEYOPT(2)=0 IS SUGGESTED AND HAS BEEN RESET.
  KEYOPT(1-12)=    0    0    0    0    0    0    0    0    0    0    0    0

 ELEMENT TYPE    4 IS SOLID186. KEYOPT(2)=0 IS SUGGESTED AND HAS BEEN RESET.
  KEYOPT(1-12)=    0    0    0    0    0    0    0    0    0    0    0    0

 ELEMENT TYPE    5 IS SOLID186. KEYOPT(2)=0 IS SUGGESTED AND HAS BEEN RESET.
  KEYOPT(1-12)=    0    0    0    0    0    0    0    0    0    0    0    0

 ELEMENT TYPE    6 IS SOLID186. KEYOPT(2)=0 IS SUGGESTED AND HAS BEEN RESET.
  KEYOPT(1-12)=    0    0    0    0    0    0    0    0    0    0    0    0

 ELEMENT TYPE    7 IS SOLID187. IT IS NOT ASSOCIATED WITH FULLY INCOMPRESSIBLE
 HYPERELASTIC MATERIALS. NO SUGGESTION IS AVAILABLE AND NO RESETTING IS NEEDED.

 ELEMENT TYPE    8 IS SOLID187. IT IS NOT ASSOCIATED WITH FULLY INCOMPRESSIBLE
 HYPERELASTIC MATERIALS. NO SUGGESTION IS AVAILABLE AND NO RESETTING IS NEEDED.

 ELEMENT TYPE    9 IS SOLID186. KEYOPT(2)=0 IS SUGGESTED AND HAS BEEN RESET.
  KEYOPT(1-12)=    0    0    0    0    0    0    0    0    0    0    0    0

 ELEMENT TYPE   10 IS SOLID186. KEYOPT(2)=0 IS SUGGESTED AND HAS BEEN RESET.
  KEYOPT(1-12)=    0    0    0    0    0    0    0    0    0    0    0    0

 ELEMENT TYPE   11 IS SOLID186. KEYOPT(2)=0 IS SUGGESTED AND HAS BEEN RESET.
  KEYOPT(1-12)=    0    0    0    0    0    0    0    0    0    0    0    0

 ELEMENT TYPE   12 IS SOLID186. KEYOPT(2)=0 IS SUGGESTED AND HAS BEEN RESET.
  KEYOPT(1-12)=    0    0    0    0    0    0    0    0    0    0    0    0

 ELEMENT TYPE   13 IS SOLID186. KEYOPT(2)=0 IS SUGGESTED AND HAS BEEN RESET.
  KEYOPT(1-12)=    0    0    0    0    0    0    0    0    0    0    0    0



 *** ANSYS - ENGINEERING ANALYSIS SYSTEM  RELEASE Release 19.0     19.0     ***
 DISTRIBUTED ANSYS Mechanical Enterprise                       

 00000000  VERSION=WINDOWS x64   15:48:58  MAR 09, 2022 CP=      0.516

 unsaved_project--Static Structural (B5)                                       



                       S O L U T I O N   O P T I O N S

   PROBLEM DIMENSIONALITY. . . . . . . . . . . . .3-D                  
   DEGREES OF FREEDOM. . . . . . UX   UY   UZ   ROTX ROTY ROTZ
   ANALYSIS TYPE . . . . . . . . . . . . . . . . .STATIC (STEADY-STATE)
   OFFSET TEMPERATURE FROM ABSOLUTE ZERO . . . . .  273.15    
   EQUATION SOLVER OPTION. . . . . . . . . . . . .SPARSE             
   GLOBALLY ASSEMBLED MATRIX . . . . . . . . . . .SYMMETRIC  

 *** WARNING ***                         CP =       0.516   TIME= 15:48:58
 Material number 58 (used by element 12487 ) should normally have at     
 least one MP or one TB type command associated with it.  Output of      
 energy by material may not be available.                                

 *** NOTE ***                            CP =       0.547   TIME= 15:48:58
 The step data was checked and warning messages were found.              
  Please review output or errors file (                                  
 C:\Users\tron1\AppData\Local\Temp\WB_DESKTOP-M5SM042_tron1_15552_2\_Pro 
 ojectScratch\ScrC2AC\file0.err ) for these warning messages.            

 *** NOTE ***                            CP =       0.578   TIME= 15:48:58
 Internal nodes from 34373 to 34373 are created.                         
 1 internal nodes are used for handling degrees of freedom on pilot      
 nodes of rigid target surfaces.                                         

 *** NOTE ***                            CP =       0.609   TIME= 15:48:58
 Internal nodes from 34373 to 34373 are created.                         
 1 internal nodes are used for handling degrees of freedom on pilot      
 nodes of rigid target surfaces.                                         

 *** NOTE ***                            CP =       0.766   TIME= 15:48:58
 Symmetric Deformable- deformable contact pair identified by real        
 constant set 14 and contact element type 14 has been set up.  The       
 companion pair has real constant set ID 15.  Both pairs should have     
 the same behavior.                                                      
 ANSYS will deactivate the current pair and keep its companion pair,     
 resulting in asymmetric contact.                                        
 Linear contact is defined
 Contact algorithm: Augmented Lagrange method
 Contact detection at: Gauss integration point
 Contact stiffness factor FKN                  10.000    
 The resulting initial contact stiffness       956.52    
 Default penetration tolerance factor FTOLN   0.10000    
 The resulting penetration tolerance           1352.2    
 Default opening contact stiffness OPSF will be used.
 Default tangent stiffness factor FKT          1.0000    
 Use constant contact stiffness
 Default Max. friction stress TAUMAX          0.10000E+21
 Average contact surface length                44660.    
 Average contact pair depth                    13522.    
 Default pinball region factor PINB           0.25000    
 The resulting pinball region                  3380.4    
 Initial penetration/gap is excluded.
 Bonded contact (always) is defined.

 *** NOTE ***                            CP =       0.766   TIME= 15:48:58
 Max.  Initial penetration 0 was detected between contact element 8674   
 and target element 8738.                                                
 ****************************************
  

 *** NOTE ***                            CP =       0.766   TIME= 15:48:58
 Symmetric Deformable- deformable contact pair identified by real        
 constant set 15 and contact element type 14 has been set up.  The       
 companion pair has real constant set ID 14.  Both pairs should have     
 the same behavior.                                                      
 ANSYS will keep the current pair and deactivate its companion pair,     
 resulting in asymmetric contact.                                        
 Linear contact is defined
 Contact algorithm: Augmented Lagrange method
 Contact detection at: Gauss integration point
 Contact stiffness factor FKN                  10.000    
 The resulting initial contact stiffness       956.52    
 Default penetration tolerance factor FTOLN   0.10000    
 The resulting penetration tolerance           4181.8    
 Default opening contact stiffness OPSF will be used.
 Default tangent stiffness factor FKT          1.0000    
 Use constant contact stiffness
 Default Max. friction stress TAUMAX          0.10000E+21
 Average contact surface length                9141.5    
 Average contact pair depth                    41818.    
 Default pinball region factor PINB           0.25000    
 The resulting pinball region                  10455.    
 Initial penetration/gap is excluded.
 Bonded contact (always) is defined.

 *** NOTE ***                            CP =       0.766   TIME= 15:48:58
 Max.  Initial penetration 1.164153218E-10 was detected between contact  
 element 8699 and target element 8654.                                   
 ****************************************
  

 *** NOTE ***                            CP =       0.766   TIME= 15:48:58
 Symmetric Deformable- deformable contact pair identified by real        
 constant set 16 and contact element type 16 has been set up.  The       
 companion pair has real constant set ID 17.  Both pairs should have     
 the same behavior.                                                      
 ANSYS will deactivate the current pair and keep its companion pair,     
 resulting in asymmetric contact.                                        
 Linear contact is defined
 Contact algorithm: Augmented Lagrange method
 Contact detection at: Gauss integration point
 Contact stiffness factor FKN                  10.000    
 The resulting initial contact stiffness       956.52    
 Default penetration tolerance factor FTOLN   0.10000    
 The resulting penetration tolerance           1377.9    
 Default opening contact stiffness OPSF will be used.
 Default tangent stiffness factor FKT          1.0000    
 Use constant contact stiffness
 Default Max. friction stress TAUMAX          0.10000E+21
 Average contact surface length                45931.    
 Average contact pair depth                    13779.    
 Default pinball region factor PINB           0.25000    
 The resulting pinball region                  3444.8    
 Initial penetration/gap is excluded.
 Bonded contact (always) is defined.

 *** NOTE ***                            CP =       0.766   TIME= 15:48:58
 Max.  Initial penetration 0 was detected between contact element 8774   
 and target element 8849.                                                
 ****************************************
  

 *** NOTE ***                            CP =       0.766   TIME= 15:48:58
 Symmetric Deformable- deformable contact pair identified by real        
 constant set 17 and contact element type 16 has been set up.  The       
 companion pair has real constant set ID 16.  Both pairs should have     
 the same behavior.                                                      
 ANSYS will keep the current pair and deactivate its companion pair,     
 resulting in asymmetric contact.                                        
 Linear contact is defined
 Contact algorithm: Augmented Lagrange method
 Contact detection at: Gauss integration point
 Contact stiffness factor FKN                  10.000    
 The resulting initial contact stiffness       956.52    
 Default penetration tolerance factor FTOLN   0.10000    
 The resulting penetration tolerance           4181.8    
 Default opening contact stiffness OPSF will be used.
 Default tangent stiffness factor FKT          1.0000    
 Use constant contact stiffness
 Default Max. friction stress TAUMAX          0.10000E+21
 Average contact surface length                9141.5    
 Average contact pair depth                    41818.    
 Default pinball region factor PINB           0.25000    
 The resulting pinball region                  10455.    
 Initial penetration/gap is excluded.
 Bonded contact (always) is defined.

 *** NOTE ***                            CP =       0.766   TIME= 15:48:58
 Max.  Initial penetration 1.164153218E-10 was detected between contact  
 element 8791 and target element 8762.                                   
 ****************************************
  

 *** NOTE ***                            CP =       0.766   TIME= 15:48:58
 Symmetric Deformable- deformable contact pair identified by real        
 constant set 18 and contact element type 18 has been set up.  The       
 companion pair has real constant set ID 19.  Both pairs should have     
 the same behavior.                                                      
 ANSYS will deactivate the current pair and keep its companion pair,     
 resulting in asymmetric contact.                                        
 Linear contact is defined
 Contact algorithm: Augmented Lagrange method
 Contact detection at: Gauss integration point
 Contact stiffness factor FKN                  10.000    
 The resulting initial contact stiffness       956.52    
 Default penetration tolerance factor FTOLN   0.10000    
 The resulting penetration tolerance           1271.6    
 Default opening contact stiffness OPSF will be used.
 Default tangent stiffness factor FKT          1.0000    
 Use constant contact stiffness
 Default Max. friction stress TAUMAX          0.10000E+21
 Average contact surface length                41952.    
 Average contact pair depth                    12716.    
 Default pinball region factor PINB           0.25000    
 The resulting pinball region                  3179.1    
 Initial penetration/gap is excluded.
 Bonded contact (always) is defined.

 *** NOTE ***                            CP =       0.766   TIME= 15:48:58
 Max.  Initial penetration 5.820766091E-11 was detected between contact  
 element 8877 and target element 8937.                                   
 ****************************************
  

 *** NOTE ***                            CP =       0.766   TIME= 15:48:58
 Symmetric Deformable- deformable contact pair identified by real        
 constant set 19 and contact element type 18 has been set up.  The       
 companion pair has real constant set ID 18.  Both pairs should have     
 the same behavior.                                                      
 ANSYS will keep the current pair and deactivate its companion pair,     
 resulting in asymmetric contact.                                        
 Linear contact is defined
 Contact algorithm: Augmented Lagrange method
 Contact detection at: Gauss integration point
 Contact stiffness factor FKN                  10.000    
 The resulting initial contact stiffness       956.52    
 Default penetration tolerance factor FTOLN   0.10000    
 The resulting penetration tolerance           4181.8    
 Default opening contact stiffness OPSF will be used.
 Default tangent stiffness factor FKT          1.0000    
 Use constant contact stiffness
 Default Max. friction stress TAUMAX          0.10000E+21
 Average contact surface length                9141.5    
 Average contact pair depth                    41818.    
 Default pinball region factor PINB           0.25000    
 The resulting pinball region                  10455.    
 Initial penetration/gap is excluded.
 Bonded contact (always) is defined.

 *** NOTE ***                            CP =       0.766   TIME= 15:48:58
 Max.  Initial penetration 1.164153218E-10 was detected between contact  
 element 8895 and target element 8866.                                   
 ****************************************
  

 *** NOTE ***                            CP =       0.766   TIME= 15:48:58
 Symmetric Deformable- deformable contact pair identified by real        
 constant set 20 and contact element type 20 has been set up.  The       
 companion pair has real constant set ID 21.  Both pairs should have     
 the same behavior.                                                      
 ANSYS will deactivate the current pair and keep its companion pair,     
 resulting in asymmetric contact.                                        
 Linear contact is defined
 Contact algorithm: Augmented Lagrange method
 Contact detection at: Gauss integration point
 Contact stiffness factor FKN                  10.000    
 The resulting initial contact stiffness       956.52    
 Default penetration tolerance factor FTOLN   0.10000    
 The resulting penetration tolerance           1249.2    
 Default opening contact stiffness OPSF will be used.
 Default tangent stiffness factor FKT          1.0000    
 Use constant contact stiffness
 Default Max. friction stress TAUMAX          0.10000E+21
 Average contact surface length                41109.    
 Average contact pair depth                    12492.    
 Default pinball region factor PINB           0.25000    
 The resulting pinball region                  3122.9    
 Initial penetration/gap is excluded.
 Bonded contact (always) is defined.

 *** NOTE ***                            CP =       0.766   TIME= 15:48:58
 Max.  Initial penetration 1.164153218E-10 was detected between contact  
 element 8981 and target element 9057.                                   
 ****************************************
  

 *** NOTE ***                            CP =       0.766   TIME= 15:48:58
 Symmetric Deformable- deformable contact pair identified by real        
 constant set 21 and contact element type 20 has been set up.  The       
 companion pair has real constant set ID 20.  Both pairs should have     
 the same behavior.                                                      
 ANSYS will keep the current pair and deactivate its companion pair,     
 resulting in asymmetric contact.                                        
 Linear contact is defined
 Contact algorithm: Augmented Lagrange method
 Contact detection at: Gauss integration point
 Contact stiffness factor FKN                  10.000    
 The resulting initial contact stiffness       956.52    
 Default penetration tolerance factor FTOLN   0.10000    
 The resulting penetration tolerance           4181.8    
 Default opening contact stiffness OPSF will be used.
 Default tangent stiffness factor FKT          1.0000    
 Use constant contact stiffness
 Default Max. friction stress TAUMAX          0.10000E+21
 Average contact surface length                9139.2    
 Average contact pair depth                    41818.    
 Default pinball region factor PINB           0.25000    
 The resulting pinball region                  10455.    
 Initial penetration/gap is excluded.
 Bonded contact (always) is defined.

 *** NOTE ***                            CP =       0.766   TIME= 15:48:58
 Max.  Initial penetration 1.164153218E-10 was detected between contact  
 element 8993 and target element 8964.                                   
 ****************************************
  

 *** NOTE ***                            CP =       0.766   TIME= 15:48:58
 Symmetric Deformable- deformable contact pair identified by real        
 constant set 22 and contact element type 22 has been set up.  The       
 companion pair has real constant set ID 23.  Both pairs should have     
 the same behavior.                                                      
 ANSYS will keep the current pair and deactivate its companion pair,     
 resulting in asymmetric contact.                                        
 Linear contact is defined
 Contact algorithm: Augmented Lagrange method
 Contact detection at: Gauss integration point
 Contact stiffness factor FKN                  10.000    
 The resulting initial contact stiffness       700.00    
 Default penetration tolerance factor FTOLN   0.10000    
 The resulting penetration tolerance           5714.3    
 Default opening contact stiffness OPSF will be used.
 Default tangent stiffness factor FKT          1.0000    
 Use constant contact stiffness
 Default Max. friction stress TAUMAX          0.10000E+21
 Average contact surface length                9976.0    
 Average contact pair depth                    57143.    
 Default pinball region factor PINB           0.25000    
 The resulting pinball region                  14286.    
 Initial penetration/gap is excluded.
 Bonded contact (always) is defined.

 *** NOTE ***                            CP =       0.766   TIME= 15:48:58
 Max.  Initial penetration 5.820766091E-11 was detected between contact  
 element 9078 and target element 9112.                                   
  
 Max.  Geometric gap 1670.79888 has been detected between contact        
 element 9079 and target element 9117.                                   
 ****************************************
  

 *** NOTE ***                            CP =       0.766   TIME= 15:48:58
 Symmetric Deformable- deformable contact pair identified by real        
 constant set 23 and contact element type 22 has been set up.  The       
 companion pair has real constant set ID 22.  Both pairs should have     
 the same behavior.                                                      
 ANSYS will deactivate the current pair and keep its companion pair,     
 resulting in asymmetric contact.                                        
 Linear contact is defined
 Contact algorithm: Augmented Lagrange method
 Contact detection at: Gauss integration point
 Contact stiffness factor FKN                  10.000    
 The resulting initial contact stiffness       700.00    
 Default penetration tolerance factor FTOLN   0.10000    
 The resulting penetration tolerance           705.36    
 Default opening contact stiffness OPSF will be used.
 Default tangent stiffness factor FKT          1.0000    
 Use constant contact stiffness
 Default Max. friction stress TAUMAX          0.10000E+21
 Average contact surface length                22537.    
 Average contact pair depth                    7053.6    
 Default pinball region factor PINB           0.25000    
 The resulting pinball region                  1763.4    
 Initial penetration/gap is excluded.
 Bonded contact (always) is defined.

 *** NOTE ***                            CP =       0.766   TIME= 15:48:58
 Max.  Initial penetration 5.820766091E-11 was detected between contact  
 element 9091 and target element 9068.                                   
 ****************************************
  

 *** NOTE ***                            CP =       0.766   TIME= 15:48:58
 Symmetric Deformable- deformable contact pair identified by real        
 constant set 24 and contact element type 24 has been set up.  The       
 companion pair has real constant set ID 25.  Both pairs should have     
 the same behavior.                                                      
 ANSYS will keep the current pair and deactivate its companion pair,     
 resulting in asymmetric contact.                                        
 Linear contact is defined
 Contact algorithm: Augmented Lagrange method
 Contact detection at: Gauss integration point
 Contact stiffness factor FKN                  10.000    
 The resulting initial contact stiffness       700.00    
 Default penetration tolerance factor FTOLN   0.10000    
 The resulting penetration tolerance           5714.3    
 Default opening contact stiffness OPSF will be used.
 Default tangent stiffness factor FKT          1.0000    
 Use constant contact stiffness
 Default Max. friction stress TAUMAX          0.10000E+21
 Average contact surface length                9002.1    
 Average contact pair depth                    57143.    
 Default pinball region factor PINB           0.25000    
 The resulting pinball region                  14286.    
 Initial penetration/gap is excluded.
 Bonded contact (always) is defined.

 *** NOTE ***                            CP =       0.766   TIME= 15:48:58
 Max.  Initial penetration 5.820766091E-11 was detected between contact  
 element 9141 and target element 9186.                                   
  
 Max.  Geometric gap 1670.79888 has been detected between contact        
 element 9143 and target element 9178.                                   
 ****************************************
  

 *** NOTE ***                            CP =       0.766   TIME= 15:48:58
 Symmetric Deformable- deformable contact pair identified by real        
 constant set 25 and contact element type 24 has been set up.  The       
 companion pair has real constant set ID 24.  Both pairs should have     
 the same behavior.                                                      
 ANSYS will deactivate the current pair and keep its companion pair,     
 resulting in asymmetric contact.                                        
 Linear contact is defined
 Contact algorithm: Augmented Lagrange method
 Contact detection at: Gauss integration point
 Contact stiffness factor FKN                  10.000    
 The resulting initial contact stiffness       700.00    
 Default penetration tolerance factor FTOLN   0.10000    
 The resulting penetration tolerance           762.52    
 Default opening contact stiffness OPSF will be used.
 Default tangent stiffness factor FKT          1.0000    
 Use constant contact stiffness
 Default Max. friction stress TAUMAX          0.10000E+21
 Average contact surface length                22238.    
 Average contact pair depth                    7625.2    
 Default pinball region factor PINB           0.25000    
 The resulting pinball region                  1906.3    
 Initial penetration/gap is excluded.
 Bonded contact (always) is defined.

 *** NOTE ***                            CP =       0.766   TIME= 15:48:58
 Max.  Initial penetration 5.820766091E-11 was detected between contact  
 element 9165 and target element 9131.                                   
 ****************************************
  

 *** NOTE ***                            CP =       0.766   TIME= 15:48:58
 Symmetric Deformable- deformable contact pair identified by real        
 constant set 26 and contact element type 26 has been set up.  The       
 companion pair has real constant set ID 27.  Both pairs should have     
 the same behavior.                                                      
 ANSYS will keep the current pair and deactivate its companion pair,     
 resulting in asymmetric contact.                                        
 Linear contact is defined
 Contact algorithm: Augmented Lagrange method
 Contact detection at: Gauss integration point
 Contact stiffness factor FKN                  10.000    
 The resulting initial contact stiffness       700.00    
 Default penetration tolerance factor FTOLN   0.10000    
 The resulting penetration tolerance           5714.3    
 Default opening contact stiffness OPSF will be used.
 Default tangent stiffness factor FKT          1.0000    
 Use constant contact stiffness
 Default Max. friction stress TAUMAX          0.10000E+21
 Average contact surface length                10588.    
 Average contact pair depth                    57143.    
 Default pinball region factor PINB           0.25000    
 The resulting pinball region                  14286.    
 Initial penetration/gap is excluded.
 Bonded contact (always) is defined.

 *** NOTE ***                            CP =       0.766   TIME= 15:48:58
 Max.  Initial penetration 1.164153218E-10 was detected between contact  
 element 9239 and target element 9295.                                   
  
 Max.  Geometric gap 6521.39981 has been detected between contact        
 element 9228 and target element 9281.                                   
 ****************************************
  

 *** NOTE ***                            CP =       0.766   TIME= 15:48:58
 Symmetric Deformable- deformable contact pair identified by real        
 constant set 27 and contact element type 26 has been set up.  The       
 companion pair has real constant set ID 26.  Both pairs should have     
 the same behavior.                                                      
 ANSYS will deactivate the current pair and keep its companion pair,     
 resulting in asymmetric contact.                                        
 Linear contact is defined
 Contact algorithm: Augmented Lagrange method
 Contact detection at: Gauss integration point
 Contact stiffness factor FKN                  10.000    
 The resulting initial contact stiffness       700.00    
 Default penetration tolerance factor FTOLN   0.10000    
 The resulting penetration tolerance           966.16    
 Default opening contact stiffness OPSF will be used.
 Default tangent stiffness factor FKT          1.0000    
 Use constant contact stiffness
 Default Max. friction stress TAUMAX          0.10000E+21
 Average contact surface length                32205.    
 Average contact pair depth                    9661.6    
 Default pinball region factor PINB           0.25000    
 The resulting pinball region                  2415.4    
 Initial penetration/gap is excluded.
 Bonded contact (always) is defined.

 *** NOTE ***                            CP =       0.766   TIME= 15:48:58
 Min.  Initial gap 2259.7049 was detected between contact element 9277   
 and target element 9197.                                                
 The gap is closed due to initial settings.                              
 *WARNING*: The geometric gap/penetration may be too large.  Increase    
 pinball radius if it is a true geometric gap/penetration.  Decrease     
 pinball if it is a false one.                                           
 ****************************************
  

 *** NOTE ***                            CP =       0.766   TIME= 15:48:58
 Symmetric Deformable- deformable contact pair identified by real        
 constant set 28 and contact element type 28 has been set up.  The       
 companion pair has real constant set ID 29.  Both pairs should have     
 the same behavior.                                                      
 ANSYS will keep the current pair and deactivate its companion pair,     
 resulting in asymmetric contact.                                        
 Linear contact is defined
 Contact algorithm: Augmented Lagrange method
 Contact detection at: Gauss integration point
 Contact stiffness factor FKN                  10.000    
 The resulting initial contact stiffness       700.00    
 Default penetration tolerance factor FTOLN   0.10000    
 The resulting penetration tolerance           5714.3    
 Default opening contact stiffness OPSF will be used.
 Default tangent stiffness factor FKT          1.0000    
 Use constant contact stiffness
 Default Max. friction stress TAUMAX          0.10000E+21
 Average contact surface length                9152.6    
 Average contact pair depth                    57143.    
 Default pinball region factor PINB           0.25000    
 The resulting pinball region                  14286.    
 Initial penetration/gap is excluded.
 Bonded contact (always) is defined.

 *** NOTE ***                            CP =       0.766   TIME= 15:48:58
 Max.  Initial penetration 1.164153218E-10 was detected between contact  
 element 9345 and target element 9401.                                   
  
 Max.  Geometric gap 6521.39981 has been detected between contact        
 element 9342 and target element 9414.                                   
 ****************************************
  

 *** NOTE ***                            CP =       0.766   TIME= 15:48:58
 Symmetric Deformable- deformable contact pair identified by real        
 constant set 29 and contact element type 28 has been set up.  The       
 companion pair has real constant set ID 28.  Both pairs should have     
 the same behavior.                                                      
 ANSYS will deactivate the current pair and keep its companion pair,     
 resulting in asymmetric contact.                                        
 Linear contact is defined
 Contact algorithm: Augmented Lagrange method
 Contact detection at: Gauss integration point
 Contact stiffness factor FKN                  10.000    
 The resulting initial contact stiffness       700.00    
 Default penetration tolerance factor FTOLN   0.10000    
 The resulting penetration tolerance           966.16    
 Default opening contact stiffness OPSF will be used.
 Default tangent stiffness factor FKT          1.0000    
 Use constant contact stiffness
 Default Max. friction stress TAUMAX          0.10000E+21
 Average contact surface length                32205.    
 Average contact pair depth                    9661.6    
 Default pinball region factor PINB           0.25000    
 The resulting pinball region                  2415.4    
 Initial penetration/gap is excluded.
 Bonded contact (always) is defined.

 *** NOTE ***                            CP =       0.766   TIME= 15:48:58
 Min.  Initial gap 2259.7049 was detected between contact element 9377   
 and target element 9304.                                                
 The gap is closed due to initial settings.                              
 *WARNING*: The geometric gap/penetration may be too large.  Increase    
 pinball radius if it is a true geometric gap/penetration.  Decrease     
 pinball if it is a false one.                                           
 ****************************************
  

 *** NOTE ***                            CP =       0.766   TIME= 15:48:58
 Symmetric Deformable- deformable contact pair identified by real        
 constant set 30 and contact element type 30 has been set up.  The       
 companion pair has real constant set ID 31.  Both pairs should have     
 the same behavior.                                                      
 ANSYS will keep the current pair and deactivate its companion pair,     
 resulting in asymmetric contact.                                        
 Linear contact is defined
 Contact algorithm: Augmented Lagrange method
 Contact detection at: Gauss integration point
 Contact stiffness factor FKN                  10.000    
 The resulting initial contact stiffness       1848.5    
 Default penetration tolerance factor FTOLN   0.10000    
 The resulting penetration tolerance           1245.7    
 Default opening contact stiffness OPSF will be used.
 Default tangent stiffness factor FKT          1.0000    
 Use constant contact stiffness
 Default Max. friction stress TAUMAX          0.10000E+21
 Average contact surface length                41523.    
 Average contact pair depth                    12457.    
 Default pinball region factor PINB           0.25000    
 The resulting pinball region                  3114.2    
 Initial penetration/gap is excluded.
 Bonded contact (always) is defined.

 *** NOTE ***                            CP =       0.766   TIME= 15:48:58
 Max.  Initial penetration 5.484517677E-12 was detected between contact  
 element 9637 and target element 9678.                                   
  
 Max.  Geometric gap 2259.70488 has been detected between contact        
 element 9572 and target element 9679.                                   
 *WARNING*: The geometric gap/penetration may be too large.  Increase    
 pinball radius if it is a true geometric gap/penetration.  Decrease     
 pinball if it is a false one.                                           
 ****************************************
  

 *** NOTE ***                            CP =       0.766   TIME= 15:48:58
 Symmetric Deformable- deformable contact pair identified by real        
 constant set 31 and contact element type 30 has been set up.  The       
 companion pair has real constant set ID 30.  Both pairs should have     
 the same behavior.                                                      
 ANSYS will deactivate the current pair and keep its companion pair,     
 resulting in asymmetric contact.                                        
 Linear contact is defined
 Contact algorithm: Augmented Lagrange method
 Contact detection at: Gauss integration point
 Contact stiffness factor FKN                  10.000    
 The resulting initial contact stiffness       1848.5    
 Default penetration tolerance factor FTOLN   0.10000    
 The resulting penetration tolerance           2163.9    
 Default opening contact stiffness OPSF will be used.
 Default tangent stiffness factor FKT          1.0000    
 Use constant contact stiffness
 Default Max. friction stress TAUMAX          0.10000E+21
 Average contact surface length                72129.    
 Average contact pair depth                    21639.    
 Default pinball region factor PINB           0.25000    
 The resulting pinball region                  5409.7    
 Initial penetration/gap is excluded.
 Bonded contact (always) is defined.

 *** NOTE ***                            CP =       0.766   TIME= 15:48:58
 Max.  Initial penetration 6.39660253E-12 was detected between contact   
 element 9664 and target element 9473.                                   
 ****************************************
  

 *** NOTE ***                            CP =       0.766   TIME= 15:48:58
 Symmetric Deformable- deformable contact pair identified by real        
 constant set 32 and contact element type 32 has been set up.  The       
 companion pair has real constant set ID 33.  Both pairs should have     
 the same behavior.                                                      
 ANSYS will keep the current pair and deactivate its companion pair,     
 resulting in asymmetric contact.                                        
 Linear contact is defined
 Contact algorithm: Augmented Lagrange method
 Contact detection at: Gauss integration point
 Contact stiffness factor FKN                  10.000    
 The resulting initial contact stiffness       700.00    
 Default penetration tolerance factor FTOLN   0.10000    
 The resulting penetration tolerance           5714.3    
 Default opening contact stiffness OPSF will be used.
 Default tangent stiffness factor FKT          1.0000    
 Use constant contact stiffness
 Default Max. friction stress TAUMAX          0.10000E+21
 Average contact surface length                9152.6    
 Average contact pair depth                    57143.    
 Default pinball region factor PINB           0.25000    
 The resulting pinball region                  14286.    
 Initial penetration/gap is excluded.
 Bonded contact (always) is defined.

 *** NOTE ***                            CP =       0.766   TIME= 15:48:58
 Max.  Initial penetration 1.164153218E-10 was detected between contact  
 element 9731 and target element 9787.                                   
  
 Max.  Geometric gap 6521.39542 has been detected between contact        
 element 9728 and target element 9800.                                   
 ****************************************
  

 *** NOTE ***                            CP =       0.766   TIME= 15:48:58
 Symmetric Deformable- deformable contact pair identified by real        
 constant set 33 and contact element type 32 has been set up.  The       
 companion pair has real constant set ID 32.  Both pairs should have     
 the same behavior.                                                      
 ANSYS will deactivate the current pair and keep its companion pair,     
 resulting in asymmetric contact.                                        
 Linear contact is defined
 Contact algorithm: Augmented Lagrange method
 Contact detection at: Gauss integration point
 Contact stiffness factor FKN                  10.000    
 The resulting initial contact stiffness       700.00    
 Default penetration tolerance factor FTOLN   0.10000    
 The resulting penetration tolerance           966.16    
 Default opening contact stiffness OPSF will be used.
 Default tangent stiffness factor FKT          1.0000    
 Use constant contact stiffness
 Default Max. friction stress TAUMAX          0.10000E+21
 Average contact surface length                32205.    
 Average contact pair depth                    9661.6    
 Default pinball region factor PINB           0.25000    
 The resulting pinball region                  2415.4    
 Initial penetration/gap is excluded.
 Bonded contact (always) is defined.

 *** NOTE ***                            CP =       0.766   TIME= 15:48:58
 Min.  Initial gap 2259.7049 was detected between contact element 9763   
 and target element 9690.                                                
 The gap is closed due to initial settings.                              
 *WARNING*: The geometric gap/penetration may be too large.  Increase    
 pinball radius if it is a true geometric gap/penetration.  Decrease     
 pinball if it is a false one.                                           
 ****************************************
  

 *** NOTE ***                            CP =       0.766   TIME= 15:48:58
 Symmetric Deformable- deformable contact pair identified by real        
 constant set 34 and contact element type 34 has been set up.  The       
 companion pair has real constant set ID 35.  Both pairs should have     
 the same behavior.                                                      
 ANSYS will keep the current pair and deactivate its companion pair,     
 resulting in asymmetric contact.                                        
 Linear contact is defined
 Contact algorithm: Augmented Lagrange method
 Contact detection at: Gauss integration point
 Contact stiffness factor FKN                  10.000    
 The resulting initial contact stiffness       700.00    
 Default penetration tolerance factor FTOLN   0.10000    
 The resulting penetration tolerance           5714.3    
 Default opening contact stiffness OPSF will be used.
 Default tangent stiffness factor FKT          1.0000    
 Use constant contact stiffness
 Default Max. friction stress TAUMAX          0.10000E+21
 Average contact surface length                10588.    
 Average contact pair depth                    57143.    
 Default pinball region factor PINB           0.25000    
 The resulting pinball region                  14286.    
 Initial penetration/gap is excluded.
 Bonded contact (always) is defined.

 *** NOTE ***                            CP =       0.766   TIME= 15:48:58
 Max.  Initial penetration 1.164153218E-10 was detected between contact  
 element 9853 and target element 9909.                                   
  
 Max.  Geometric gap 6521.39542 has been detected between contact        
 element 9842 and target element 9895.                                   
 ****************************************
  

 *** NOTE ***                            CP =       0.766   TIME= 15:48:58
 Symmetric Deformable- deformable contact pair identified by real        
 constant set 35 and contact element type 34 has been set up.  The       
 companion pair has real constant set ID 34.  Both pairs should have     
 the same behavior.                                                      
 ANSYS will deactivate the current pair and keep its companion pair,     
 resulting in asymmetric contact.                                        
 Linear contact is defined
 Contact algorithm: Augmented Lagrange method
 Contact detection at: Gauss integration point
 Contact stiffness factor FKN                  10.000    
 The resulting initial contact stiffness       700.00    
 Default penetration tolerance factor FTOLN   0.10000    
 The resulting penetration tolerance           966.16    
 Default opening contact stiffness OPSF will be used.
 Default tangent stiffness factor FKT          1.0000    
 Use constant contact stiffness
 Default Max. friction stress TAUMAX          0.10000E+21
 Average contact surface length                32205.    
 Average contact pair depth                    9661.6    
 Default pinball region factor PINB           0.25000    
 The resulting pinball region                  2415.4    
 Initial penetration/gap is excluded.
 Bonded contact (always) is defined.

 *** NOTE ***                            CP =       0.766   TIME= 15:48:58
 Min.  Initial gap 2259.7049 was detected between contact element 9891   
 and target element 9811.                                                
 The gap is closed due to initial settings.                              
 *WARNING*: The geometric gap/penetration may be too large.  Increase    
 pinball radius if it is a true geometric gap/penetration.  Decrease     
 pinball if it is a false one.                                           
 ****************************************
  

 *** NOTE ***                            CP =       0.766   TIME= 15:48:58
 Symmetric Deformable- deformable contact pair identified by real        
 constant set 36 and contact element type 36 has been set up.  The       
 companion pair has real constant set ID 37.  Both pairs should have     
 the same behavior.                                                      
 ANSYS will keep the current pair and deactivate its companion pair,     
 resulting in asymmetric contact.                                        
 Linear contact is defined
 Contact algorithm: Augmented Lagrange method
 Contact detection at: Gauss integration point
 Contact stiffness factor FKN                  10.000    
 The resulting initial contact stiffness       1717.7    
 Default penetration tolerance factor FTOLN   0.10000    
 The resulting penetration tolerance           1245.7    
 Default opening contact stiffness OPSF will be used.
 Default tangent stiffness factor FKT          1.0000    
 Use constant contact stiffness
 Default Max. friction stress TAUMAX          0.10000E+21
 Average contact surface length                41523.    
 Average contact pair depth                    12457.    
 Default pinball region factor PINB           0.25000    
 The resulting pinball region                  3114.2    
 Initial penetration/gap is excluded.
 Bonded contact (always) is defined.

 *** NOTE ***                            CP =       0.766   TIME= 15:48:58
 Max.  Initial penetration 5.098494812E-45 was detected between contact  
 element 10057 and target element 10167.                                 
  
 Max.  Geometric gap 2259.70488 has been detected between contact        
 element 10044 and target element 10165.                                 
 *WARNING*: The geometric gap/penetration may be too large.  Increase    
 pinball radius if it is a true geometric gap/penetration.  Decrease     
 pinball if it is a false one.                                           
 ****************************************
  

 *** NOTE ***                            CP =       0.766   TIME= 15:48:58
 Symmetric Deformable- deformable contact pair identified by real        
 constant set 37 and contact element type 36 has been set up.  The       
 companion pair has real constant set ID 36.  Both pairs should have     
 the same behavior.                                                      
 ANSYS will deactivate the current pair and keep its companion pair,     
 resulting in asymmetric contact.                                        
 Linear contact is defined
 Contact algorithm: Augmented Lagrange method
 Contact detection at: Gauss integration point
 Contact stiffness factor FKN                  10.000    
 The resulting initial contact stiffness       1717.7    
 Default penetration tolerance factor FTOLN   0.10000    
 The resulting penetration tolerance           2328.7    
 Default opening contact stiffness OPSF will be used.
 Default tangent stiffness factor FKT          1.0000    
 Use constant contact stiffness
 Default Max. friction stress TAUMAX          0.10000E+21
 Average contact surface length                77622.    
 Average contact pair depth                    23287.    
 Default pinball region factor PINB           0.25000    
 The resulting pinball region                  5821.6    
 Initial penetration/gap is excluded.
 Bonded contact (always) is defined.

 *** NOTE ***                            CP =       0.766   TIME= 15:48:58
 Max.  Initial penetration 4.701051896E-45 was detected between contact  
 element 10153 and target element 9946.                                  
  
 Max.  Geometric gap 4159.99207 has been detected between contact        
 element 10141 and target element 9918.                                  
 *WARNING*: The geometric gap/penetration may be too large.  Increase    
 pinball radius if it is a true geometric gap/penetration.  Decrease     
 pinball if it is a false one.                                           
 ****************************************
  

 *** NOTE ***                            CP =       0.766   TIME= 15:48:58
 Symmetric Deformable- deformable contact pair identified by real        
 constant set 38 and contact element type 38 has been set up.  The       
 companion pair has real constant set ID 39.  Both pairs should have     
 the same behavior.                                                      
 ANSYS will keep the current pair and deactivate its companion pair,     
 resulting in asymmetric contact.                                        
 Linear contact is defined
 Contact algorithm: Augmented Lagrange method
 Contact detection at: Gauss integration point
 Contact stiffness factor FKN                  10.000    
 The resulting initial contact stiffness       2255.7    
 Default penetration tolerance factor FTOLN   0.10000    
 The resulting penetration tolerance           1773.3    
 Default opening contact stiffness OPSF will be used.
 Default tangent stiffness factor FKT          1.0000    
 Use constant contact stiffness
 Default Max. friction stress TAUMAX          0.10000E+21
 Average contact surface length                11128.    
 Average contact pair depth                    17733.    
 Default pinball region factor PINB           0.25000    
 *WARNING*: The default pinball radius may be too small to capture       
 contacting zone under small sliding assumption.  Redefine the pinball   
 radius if necessary.                                                    
 The resulting pinball region                  4433.3    
 Initial penetration/gap is excluded.
 Bonded contact (always) is defined.

 *** NOTE ***                            CP =       0.766   TIME= 15:48:58
 Max.  Initial penetration 1.164153218E-10 was detected between contact  
 element 10245 and target element 10329.                                 
  
 Max.  Geometric gap 6003.64142 has been detected between contact        
 element 10261 and target element 10323.                                 
 *WARNING*: The geometric gap/penetration is larger than the pair based  
 pinball.  Please verify the pinball radius carefully.                   
 *WARNING*: The geometric gap/penetration may be too large.  Increase    
 pinball radius if it is a true geometric gap/penetration.  Decrease     
 pinball if it is a false one.                                           
 ****************************************
  

 *** NOTE ***                            CP =       0.766   TIME= 15:48:58
 Symmetric Deformable- deformable contact pair identified by real        
 constant set 39 and contact element type 38 has been set up.  The       
 companion pair has real constant set ID 38.  Both pairs should have     
 the same behavior.                                                      
 ANSYS will deactivate the current pair and keep its companion pair,     
 resulting in asymmetric contact.                                        
 Linear contact is defined
 Contact algorithm: Augmented Lagrange method
 Contact detection at: Gauss integration point
 Contact stiffness factor FKN                  10.000    
 The resulting initial contact stiffness       2255.7    
 Default penetration tolerance factor FTOLN   0.10000    
 The resulting penetration tolerance           966.16    
 Default opening contact stiffness OPSF will be used.
 Default tangent stiffness factor FKT          1.0000    
 Use constant contact stiffness
 Default Max. friction stress TAUMAX          0.10000E+21
 Average contact surface length                32205.    
 Average contact pair depth                    9661.6    
 Default pinball region factor PINB           0.25000    
 The resulting pinball region                  2415.4    
 Initial penetration/gap is excluded.
 Bonded contact (always) is defined.

 *** NOTE ***                            CP =       0.766   TIME= 15:48:58
 Min.  Initial gap 2259.7049 was detected between contact element 10316  
 and target element 10227.                                               
 The gap is closed due to initial settings.                              
 *WARNING*: The geometric gap/penetration may be too large.  Increase    
 pinball radius if it is a true geometric gap/penetration.  Decrease     
 pinball if it is a false one.                                           
 ****************************************
  

 *** NOTE ***                            CP =       0.766   TIME= 15:48:58
 Symmetric Deformable- deformable contact pair identified by real        
 constant set 40 and contact element type 40 has been set up.  The       
 companion pair has real constant set ID 41.  Both pairs should have     
 the same behavior.                                                      
 ANSYS will keep the current pair and deactivate its companion pair,     
 resulting in asymmetric contact.                                        
 Linear contact is defined
 Contact algorithm: Augmented Lagrange method
 Contact detection at: Gauss integration point
 Contact stiffness factor FKN                  10.000    
 The resulting initial contact stiffness       2988.0    
 Default penetration tolerance factor FTOLN   0.10000    
 The resulting penetration tolerance           1338.7    
 Default opening contact stiffness OPSF will be used.
 Default tangent stiffness factor FKT          1.0000    
 Use constant contact stiffness
 Default Max. friction stress TAUMAX          0.10000E+21
 Average contact surface length                11379.    
 Average contact pair depth                    13387.    
 Default pinball region factor PINB           0.25000    
 The resulting pinball region                  3346.7    
 Initial penetration/gap is excluded.
 Bonded contact (always) is defined.

 *** NOTE ***                            CP =       0.766   TIME= 15:48:58
 Max.  Initial penetration 31.0118797 was detected between contact       
 element 10437 and target element 10506.                                 
 You may move entire target surface by : x= 30.2230605, y= -0.530959652, 
 z= -6.92974599,to reduce initial penetration.                           
 ****************************************
  

 *** NOTE ***                            CP =       0.766   TIME= 15:48:58
 Symmetric Deformable- deformable contact pair identified by real        
 constant set 41 and contact element type 40 has been set up.  The       
 companion pair has real constant set ID 40.  Both pairs should have     
 the same behavior.                                                      
 ANSYS will deactivate the current pair and keep its companion pair,     
 resulting in asymmetric contact.                                        
 Linear contact is defined
 Contact algorithm: Augmented Lagrange method
 Contact detection at: Gauss integration point
 Contact stiffness factor FKN                  10.000    
 The resulting initial contact stiffness       2988.0    
 Default penetration tolerance factor FTOLN   0.10000    
 The resulting penetration tolerance           966.16    
 Default opening contact stiffness OPSF will be used.
 Default tangent stiffness factor FKT          1.0000    
 Use constant contact stiffness
 Default Max. friction stress TAUMAX          0.10000E+21
 Average contact surface length                32205.    
 Average contact pair depth                    9661.6    
 Default pinball region factor PINB           0.25000    
 The resulting pinball region                  2415.4    
 Initial penetration/gap is excluded.
 Bonded contact (always) is defined.

 *** NOTE ***                            CP =       0.766   TIME= 15:48:58
 Max.  Initial penetration 15.978394 was detected between contact        
 element 10478 and target element 10370.                                 
 You may move entire target surface by : x= -2.6549131, y=               
 2.108861929E-14, z= -15.7562848,to reduce initial penetration.          
  
 Max.  Geometric gap 23.2119005 has been detected between contact        
 element 10473 and target element 10358.                                 
 ****************************************
  

 *** NOTE ***                            CP =       0.766   TIME= 15:48:58
 Symmetric Deformable- deformable contact pair identified by real        
 constant set 42 and contact element type 42 has been set up.  The       
 companion pair has real constant set ID 43.  Both pairs should have     
 the same behavior.                                                      
 ANSYS will keep the current pair and deactivate its companion pair,     
 resulting in asymmetric contact.                                        
 Linear contact is defined
 Contact algorithm: Augmented Lagrange method
 Contact detection at: Gauss integration point
 Contact stiffness factor FKN                  10.000    
 The resulting initial contact stiffness       1839.6    
 Default penetration tolerance factor FTOLN   0.10000    
 The resulting penetration tolerance           857.21    
 Default opening contact stiffness OPSF will be used.
 Default tangent stiffness factor FKT          1.0000    
 Use constant contact stiffness
 Default Max. friction stress TAUMAX          0.10000E+21
 Average contact surface length                27817.    
 Average contact pair depth                    8572.1    
 Default pinball region factor PINB           0.25000    
 *WARNING*: The default pinball radius may be too small to capture       
 contacting zone under small sliding assumption.  Redefine the pinball   
 radius if necessary.                                                    
 The resulting pinball region                  2143.0    
 Initial penetration/gap is excluded.
 Bonded contact (always) is defined.

 *** NOTE ***                            CP =       0.766   TIME= 15:48:58
 Max.  Initial penetration 2.066409029E-11 was detected between contact  
 element 11004 and target element 11107.                                 
  
 Max.  Geometric gap 1715.75002 has been detected between contact        
 element 10785 and target element 11096.                                 
 *WARNING*: The geometric gap/penetration may be too large.  Increase    
 pinball radius if it is a true geometric gap/penetration.  Decrease     
 pinball if it is a false one.                                           
 ****************************************
  

 *** NOTE ***                            CP =       0.766   TIME= 15:48:58
 Symmetric Deformable- deformable contact pair identified by real        
 constant set 43 and contact element type 42 has been set up.  The       
 companion pair has real constant set ID 42.  Both pairs should have     
 the same behavior.                                                      
 ANSYS will deactivate the current pair and keep its companion pair,     
 resulting in asymmetric contact.                                        
 Linear contact is defined
 Contact algorithm: Augmented Lagrange method
 Contact detection at: Gauss integration point
 Contact stiffness factor FKN                  10.000    
 The resulting initial contact stiffness       1839.6    
 Default penetration tolerance factor FTOLN   0.10000    
 The resulting penetration tolerance           2174.4    
 Default opening contact stiffness OPSF will be used.
 Default tangent stiffness factor FKT          1.0000    
 Use constant contact stiffness
 Default Max. friction stress TAUMAX          0.10000E+21
 Average contact surface length                72481.    
 Average contact pair depth                    21744.    
 Default pinball region factor PINB           0.25000    
 The resulting pinball region                  5436.1    
 Initial penetration/gap is excluded.
 Bonded contact (always) is defined.

 *** NOTE ***                            CP =       0.766   TIME= 15:48:58
 Max.  Initial penetration 2.046109837E-11 was detected between contact  
 element 11073 and target element 10769.                                 
  
 Max.  Geometric gap 3784.45517 has been detected between contact        
 element 11062 and target element 10658.                                 
 *WARNING*: The geometric gap/penetration may be too large.  Increase    
 pinball radius if it is a true geometric gap/penetration.  Decrease     
 pinball if it is a false one.                                           
 ****************************************
  

 *** NOTE ***                            CP =       0.766   TIME= 15:48:58
 Symmetric Deformable- deformable contact pair identified by real        
 constant set 44 and contact element type 44 has been set up.  The       
 companion pair has real constant set ID 45.  Both pairs should have     
 the same behavior.                                                      
 ANSYS will keep the current pair and deactivate its companion pair,     
 resulting in asymmetric contact.                                        
 Linear contact is defined
 Contact algorithm: Augmented Lagrange method
 Contact detection at: Gauss integration point
 Contact stiffness factor FKN                  10.000    
 The resulting initial contact stiffness       2798.5    
 Default penetration tolerance factor FTOLN   0.10000    
 The resulting penetration tolerance           1429.4    
 Default opening contact stiffness OPSF will be used.
 Default tangent stiffness factor FKT          1.0000    
 Use constant contact stiffness
 Default Max. friction stress TAUMAX          0.10000E+21
 Average contact surface length                11316.    
 Average contact pair depth                    14294.    
 Default pinball region factor PINB           0.25000    
 The resulting pinball region                  3573.4    
 Initial penetration/gap is excluded.
 Bonded contact (always) is defined.

 *** NOTE ***                            CP =       0.766   TIME= 15:48:58
 Max.  Initial penetration 31.0118797 was detected between contact       
 element 11191 and target element 11262.                                 
 You may move entire target surface by : x= 30.2230605, y= -0.530959652, 
 z= -6.92974599,to reduce initial penetration.                           
 ****************************************
  

 *** NOTE ***                            CP =       0.766   TIME= 15:48:58
 Symmetric Deformable- deformable contact pair identified by real        
 constant set 45 and contact element type 44 has been set up.  The       
 companion pair has real constant set ID 44.  Both pairs should have     
 the same behavior.                                                      
 ANSYS will deactivate the current pair and keep its companion pair,     
 resulting in asymmetric contact.                                        
 Linear contact is defined
 Contact algorithm: Augmented Lagrange method
 Contact detection at: Gauss integration point
 Contact stiffness factor FKN                  10.000    
 The resulting initial contact stiffness       2798.5    
 Default penetration tolerance factor FTOLN   0.10000    
 The resulting penetration tolerance           966.16    
 Default opening contact stiffness OPSF will be used.
 Default tangent stiffness factor FKT          1.0000    
 Use constant contact stiffness
 Default Max. friction stress TAUMAX          0.10000E+21
 Average contact surface length                32205.    
 Average contact pair depth                    9661.6    
 Default pinball region factor PINB           0.25000    
 The resulting pinball region                  2415.4    
 Initial penetration/gap is excluded.
 Bonded contact (always) is defined.

 *** NOTE ***                            CP =       0.766   TIME= 15:48:58
 Max.  Initial penetration 15.9782918 was detected between contact       
 element 11233 and target element 11121.                                 
[...]
  
 *************************************************
  SUMMARY FOR CONTACT PAIR IDENTIFIED BY REAL CONSTANT SET          56
 Max.  Penetration of -4.28677734E-60 has been detected between contact  
 element 12459 and target element 12479.                                 
  
 Max.  Geometrical gap of 9.244016429E-47 has been detected between      
 contact element 12454 and target element 12483.                         
  
 Max.  Geometrical penetration of -7.751037547E-48 has been detected     
 between contact element 12454 and target element 12483.                 
 For total 35 contact elements, there are 35 elements are in contact.    
 There are 35 elements are in sticking.                                  
 Contacting area 1.805684074E+09.                                        
 Max.  Pinball distance 10454.5455.                                      
 One of the contact searching regions contains at least 5 target         
 elements.                                                               
 Max.  Pressure/force 8.943810061E-09.                                   
 Max.  Normal stiffness 956.521739.                                      
 Min.  Normal stiffness 956.521739.                                      
 Max.  Tangential stiffness 2849.66461.                                  
 Min.  Tangential stiffness 2849.66461.                                  
 *************************************************
  
 *************************************************
  SUMMARY FOR CONTACT PAIR IDENTIFIED BY REAL CONSTANT SET          57

 *** NOTE ***                            CP =       1.844   TIME= 15:48:58
 Contact pair is inactive.                                               


                         ***********  PRECISE MASS SUMMARY  ***********

   TOTAL RIGID BODY MASS MATRIX ABOUT ORIGIN
               Translational mass               |   Coupled translational/rotational mass
         171.18        0.0000        0.0000     |     0.0000       -404.69       0.17413E+08
         0.0000        171.18        0.0000     |     404.69        0.0000        21334.    
         0.0000        0.0000        171.18     |   -0.17413E+08   -21334.        0.0000    
     ------------------------------------------ | ------------------------------------------
                                                |         Rotational mass (inertia)
                                                |    0.28712E+14   0.10939E+10  -0.30978E+09
                                                |    0.10939E+10   0.44356E+14   0.63006E+09
                                                |   -0.30978E+09   0.63006E+09   0.28496E+14

   TOTAL MASS =  171.18    
     The mass principal axes coincide with the global Cartesian axes

   CENTER OF MASS (X,Y,Z)=    124.63      -0.10173E+06   -2.3641    

   TOTAL INERTIA ABOUT CENTER OF MASS
        0.26941E+14  -0.10763E+10  -0.30983E+09
       -0.10763E+10   0.44356E+14   0.67123E+09
       -0.30983E+09   0.67123E+09   0.26724E+14
     The inertia principal axes coincide with the global Cartesian axes


  *** MASS SUMMARY BY ELEMENT TYPE ***

  TYPE      MASS
     1   5.05214    
     2   5.05214    
     3   5.05214    
     4   5.05214    
     5   11.5265    
     6   11.5265    
     7   11.5707    
     8   11.5731    
     9   6.62776    
    10   6.62776    
    11   6.62776    
    12   6.62776    
    13   78.2619    

 Range of element maximum matrix coefficients in global coordinates
 Maximum = 2.480415355E+12 at element 722.                               
 Minimum = 1.68861555 at element 13379.                                  

 *** WARNING ***                         CP =       1.844   TIME= 15:48:58
 Coefficient ratio exceeds 1.0e8 - Check results.                        

   *** ELEMENT MATRIX FORMULATION TIMES
     TYPE    NUMBER   ENAME      TOTAL CP  AVE CP

        1        73  SOLID186      0.000   0.000000
        2        70  SOLID186      0.000   0.000000
        3        71  SOLID186      0.000   0.000000
        4        72  SOLID186      0.000   0.000000
        5       490  SOLID186      0.031   0.000064
        6       490  SOLID186      0.047   0.000096
        7      2449  SOLID187      0.141   0.000057
        8      2447  SOLID187      0.125   0.000051
        9       385  SOLID186      0.016   0.000041
       10       385  SOLID186      0.062   0.000162
       11       385  SOLID186      0.000   0.000000
       12       385  SOLID186      0.016   0.000041
       13       945  SOLID186      0.031   0.000033
       14        53  CONTA174      0.000   0.000000
       15        53  TARGE170      0.000   0.000000
       16        50  CONTA174      0.000   0.000000
       17        50  TARGE170      0.000   0.000000
       18        53  CONTA174      0.000   0.000000
       19        53  TARGE170      0.000   0.000000
       20        51  CONTA174      0.031   0.000613
       21        51  TARGE170      0.000   0.000000
       22        32  CONTA174      0.000   0.000000
       23        32  TARGE170      0.000   0.000000
       24        31  CONTA174      0.000   0.000000
       25        31  TARGE170      0.000   0.000000
       26        57  CONTA174      0.031   0.000548
       27        57  TARGE170      0.000   0.000000
       28        57  CONTA174      0.000   0.000000
       29        57  TARGE170      0.000   0.000000
       30       136  CONTA174      0.000   0.000000
       31       136  TARGE170      0.000   0.000000
       32        57  CONTA174      0.016   0.000274
       33        57  TARGE170      0.000   0.000000
       34        57  CONTA174      0.031   0.000548
       35        57  TARGE170      0.000   0.000000
       36       135  CONTA174      0.031   0.000231
       37       135  TARGE170      0.000   0.000000
       38        78  CONTA174      0.031   0.000401
       39        78  TARGE170      0.000   0.000000
       40        82  CONTA174      0.031   0.000381
       41        82  TARGE170      0.000   0.000000
       42       301  CONTA174      0.000   0.000000
       43       301  TARGE170      0.016   0.000052
       44        82  CONTA174      0.000   0.000000
       45        82  TARGE170      0.000   0.000000
       46        78  CONTA174      0.031   0.000401
       47        78  TARGE170      0.000   0.000000
       48       353  CONTA174      0.031   0.000089
       49       353  TARGE170      0.000   0.000000
       50        44  CONTA174      0.000   0.000000
       51        44  TARGE170      0.000   0.000000
       52        44  CONTA174      0.016   0.000355
       53        44  TARGE170      0.000   0.000000
       54        44  CONTA174      0.000   0.000000
       55        44  TARGE170      0.000   0.000000
       56        44  CONTA174      0.031   0.000710
       57        44  TARGE170      0.000   0.000000
       58       315  SURF154       0.000   0.000000
       59       315  SURF154       0.000   0.000000
       60        96  CONTA174      0.000   0.000000
       61         1  TARGE170      0.000   0.000000
       62       312  COMBIN14      0.000   0.000000
 Time at end of element matrix formulation CP = 1.84375.                 

 DISTRIBUTED SPARSE MATRIX DIRECT SOLVER.
  Number of equations =      102177,    Maximum wavefront =   1002

  Local memory allocated for solver              =    292.026 MB
  Local memory required for in-core solution     =    280.337 MB
  Local memory required for out-of-core solution =    117.149 MB

  Total memory allocated for solver              =    576.803 MB
  Total memory required for in-core solution     =    554.049 MB
  Total memory required for out-of-core solution =    238.289 MB

 *** NOTE ***                            CP =       2.203   TIME= 15:48:59
 The Distributed Sparse Matrix Solver is currently running in the        
 in-core memory mode.  This memory mode uses the most amount of memory   
 in order to avoid using the hard drive as much as possible, which most  
 often results in the fastest solution time.  This mode is recommended   
 if enough physical memory is present to accommodate all of the solver   
 data.                                                                   
 curEqn=  44923  totEqn=  51339 Job CP sec=      2.812
      Factor Done=  50% Factor Wall sec=      0.389 rate=   20271.3 Mflops
 curEqn=  51339  totEqn=  51339 Job CP sec=      3.156
      Factor Done= 100% Factor Wall sec=      0.719 rate=   21907.8 Mflops
 Distributed sparse solver maximum pivot= 1.968062071E+12 at node 5714   
 UY.                                                                     
 Distributed sparse solver minimum pivot= 324.530606 at node 5347 UZ.    
 Distributed sparse solver minimum pivot in absolute value= 324.530606   
 at node 5347 UZ.                                                        

   *** ELEMENT RESULT CALCULATION TIMES
     TYPE    NUMBER   ENAME      TOTAL CP  AVE CP

        1        73  SOLID186      0.016   0.000214
        2        70  SOLID186      0.000   0.000000
        3        71  SOLID186      0.000   0.000000
        4        72  SOLID186      0.000   0.000000
        5       490  SOLID186      0.016   0.000032
        6       490  SOLID186      0.016   0.000032
        7      2449  SOLID187      0.078   0.000032
        8      2447  SOLID187      0.016   0.000006
        9       385  SOLID186      0.000   0.000000
       10       385  SOLID186      0.000   0.000000
       11       385  SOLID186      0.016   0.000041
       12       385  SOLID186      0.000   0.000000
       13       945  SOLID186      0.062   0.000066
       14        53  CONTA174      0.000   0.000000
       16        50  CONTA174      0.000   0.000000
       18        53  CONTA174      0.000   0.000000
       20        51  CONTA174      0.000   0.000000
       22        32  CONTA174      0.000   0.000000
       24        31  CONTA174      0.000   0.000000
       26        57  CONTA174      0.000   0.000000
       28        57  CONTA174      0.000   0.000000
       30       136  CONTA174      0.000   0.000000
       32        57  CONTA174      0.000   0.000000
       34        57  CONTA174      0.016   0.000274
       36       135  CONTA174      0.000   0.000000
       38        78  CONTA174      0.000   0.000000
       40        82  CONTA174      0.000   0.000000
       42       301  CONTA174      0.000   0.000000
       44        82  CONTA174      0.000   0.000000
       46        78  CONTA174      0.000   0.000000
       48       353  CONTA174      0.000   0.000000
       50        44  CONTA174      0.000   0.000000
       52        44  CONTA174      0.000   0.000000
       54        44  CONTA174      0.000   0.000000
       56        44  CONTA174      0.000   0.000000
       58       315  SURF154       0.000   0.000000
       59       315  SURF154       0.000   0.000000
       60        96  CONTA174      0.000   0.000000
       62       312  COMBIN14      0.000   0.000000

   *** NODAL LOAD CALCULATION TIMES
     TYPE    NUMBER   ENAME      TOTAL CP  AVE CP

        1        73  SOLID186      0.000   0.000000
        2        70  SOLID186      0.000   0.000000
        3        71  SOLID186      0.000   0.000000
        4        72  SOLID186      0.000   0.000000
        5       490  SOLID186      0.000   0.000000
        6       490  SOLID186      0.000   0.000000
        7      2449  SOLID187      0.000   0.000000
        8      2447  SOLID187      0.000   0.000000
        9       385  SOLID186      0.016   0.000041
       10       385  SOLID186      0.000   0.000000
       11       385  SOLID186      0.000   0.000000
       12       385  SOLID186      0.000   0.000000
       13       945  SOLID186      0.000   0.000000
       14        53  CONTA174      0.000   0.000000
       16        50  CONTA174      0.000   0.000000
       18        53  CONTA174      0.000   0.000000
       20        51  CONTA174      0.000   0.000000
       22        32  CONTA174      0.000   0.000000
       24        31  CONTA174      0.000   0.000000
       26        57  CONTA174      0.000   0.000000
       28        57  CONTA174      0.000   0.000000
       30       136  CONTA174      0.000   0.000000
       32        57  CONTA174      0.000   0.000000
       34        57  CONTA174      0.000   0.000000
       36       135  CONTA174      0.000   0.000000
       38        78  CONTA174      0.000   0.000000
       40        82  CONTA174      0.000   0.000000
       42       301  CONTA174      0.000   0.000000
       44        82  CONTA174      0.000   0.000000
       46        78  CONTA174      0.000   0.000000
       48       353  CONTA174      0.016   0.000044
       50        44  CONTA174      0.000   0.000000
       52        44  CONTA174      0.000   0.000000
       54        44  CONTA174      0.000   0.000000
       56        44  CONTA174      0.000   0.000000
       58       315  SURF154       0.000   0.000000
       59       315  SURF154       0.000   0.000000
       60        96  CONTA174      0.000   0.000000
       62       312  COMBIN14      0.000   0.000000
 *** LOAD STEP     1   SUBSTEP     1  COMPLETED.    CUM ITER =      1
 *** TIME =   1.00000         TIME INC =   1.00000      NEW TRIANG MATRIX


 *** ANSYS BINARY FILE STATISTICS
  BUFFER SIZE USED= 16384
        0.688 MB WRITTEN ON ELEMENT MATRIX FILE: file0.emat
       12.188 MB WRITTEN ON ELEMENT SAVED DATA FILE: file0.esav
       28.938 MB WRITTEN ON ASSEMBLED MATRIX FILE: file0.full
        6.125 MB WRITTEN ON RESULTS FILE: file0.rst
 *************** Write FE CONNECTORS *********

 WRITE OUT CONSTRAINT EQUATIONS TO FILE= file.ce                                                                                                                                                                                                                                                             
 ****************************************************
 *************** FINISHED SOLVE FOR LS 1 *************

 *GET  _WALLASOL  FROM  ACTI  ITEM=TIME WALL  VALUE=  15.8166667    

 PRINTOUT RESUMED BY /GOP

 FINISH SOLUTION PROCESSING


 ***** ROUTINE COMPLETED *****  CP =         3.453



 *** ANSYS - ENGINEERING ANALYSIS SYSTEM  RELEASE Release 19.0     19.0     ***
 DISTRIBUTED ANSYS Mechanical Enterprise                       

 00000000  VERSION=WINDOWS x64   15:49:00  MAR 09, 2022 CP=      3.469

 unsaved_project--Static Structural (B5)                                       



          ***** ANSYS RESULTS INTERPRETATION (POST1) *****

 *** NOTE ***                            CP =       3.469   TIME= 15:49:00
 Reading results into the database (SET command) will update the current 
 displacement and force boundary conditions in the database with the     
 values from the results file for that load set.  Note that any          
 subsequent solutions will use these values unless action is taken to    
 either SAVE the current values or not overwrite them (/EXIT,NOSAVE).    

 Set Encoding of XML File to:ISO-8859-1

 Set Output of XML File to:
     PARM,     ,     ,     ,     ,     ,     ,     ,     ,     ,     ,     ,
         ,     ,     ,     ,     ,     ,     ,

 DATABASE WRITTEN ON FILE  parm.xml                                                                                                                                                                                                                                                            

 EXIT THE ANSYS POST1 DATABASE PROCESSOR


 ***** ROUTINE COMPLETED *****  CP =         3.469



 PRINTOUT RESUMED BY /GOP

 *GET  _WALLDONE  FROM  ACTI  ITEM=TIME WALL  VALUE=  15.8166667    

 PARAMETER _PREPTIME =     1.000000000    

 PARAMETER _SOLVTIME =     2.000000000    

 PARAMETER _POSTTIME =     0.000000000    

 PARAMETER _TOTALTIM =     3.000000000    

 EXIT ANSYS WITHOUT SAVING DATABASE


 NUMBER OF WARNING MESSAGES ENCOUNTERED=          3
 NUMBER OF ERROR   MESSAGES ENCOUNTERED=          0

+--------- D I S T R I B U T E D   A N S Y S   S T A T I S T I C S ------------+

Release: Release 19.0       Build: 19.0       Update: UP20171214   Platform: WINDOWS x64 
Date Run: 03/09/2022   Time: 15:49     Process ID: 19288
Operating System: Windows 10  (Build: 19042)

Processor Model: 11th Gen Intel(R) Core(TM) i5-11400 @ 2.60GHz

Compiler: Intel(R) FORTRAN Compiler Version 15.0.7  (Build: 20160518)
          Intel(R) C/C++ Compiler Version 15.0.7  (Build: 20160518)
          Intel(R) Math Kernel Library Version 2017.0.2 Product Build 20170126

Number of machines requested            :    1
Total number of cores available         :   12
Number of physical cores available      :    6
Number of processes requested           :    2
Number of threads per process requested :    1
Total number of cores requested         :    2 (Distributed Memory Parallel)               
MPI Type: INTELMPI
MPI Version: Intel(R) MPI Library 2017 Update 3 for Windows* OS


GPU Acceleration: Not Requested

Job Name: file0
Input File: dummy.dat

  Core                Machine Name   Working Directory
 -----------------------------------------------------
     0             DESKTOP-M5SM042   C:\Users\tron1\AppData\Local\Temp\WB_DESKTOP-M5SM042_tron1_15552_2\_ProjectScratch\ScrC2AC
     1             DESKTOP-M5SM042   C:\Users\tron1\AppData\Local\Temp\WB_DESKTOP-M5SM042_tron1_15552_2\_ProjectScratch\ScrC2AC
 
Latency time from master to core     1 =    0.490 microseconds
 
Communication speed from master to core     1 =  7100.46 MB/sec

Total CPU time for main thread                    :        2.7 seconds
Total CPU time summed for all threads             :        3.8 seconds

Elapsed time spent pre-processing model (/PREP7)  :        0.1 seconds
Elapsed time spent solution - preprocessing       :        0.3 seconds
Elapsed time spent computing solution             :        2.0 seconds
Elapsed time spent solution - postprocessing      :        0.0 seconds
Elapsed time spent post-processing model (/POST1) :        0.0 seconds
 
Equation solver used                              :            Sparse (symmetric)
Equation solver computational rate                :    41865.8 Mflops
Equation solver effective I/O rate                :    14503.2 MB/sec

Maximum total memory used                         :      670.0 MB
Maximum total memory allocated                    :     3136.0 MB
Total physical memory available                   :         16 GB

+------ E N D   D I S T R I B U T E D   A N S Y S   S T A T I S T I C S -------+


 *---------------------------------------------------------------------------*
 |                                                                           |
 |                       DISTRIBUTED ANSYS RUN COMPLETED                     |
 |                                                                           |
 |---------------------------------------------------------------------------|
 |                                                                           |
 | Ansys Release 19.0          Build 19.0         UP20171214     WINDOWS x64 |
 |                                                                           |
 |---------------------------------------------------------------------------|
 |                                                                           |
 | Database Requested(-db)  1024 MB    Scratch Memory Requested      1024 MB |
 | Maximum Database Used      23 MB    Maximum Scratch Memory Used    329 MB |
 |                                                                           |
 |---------------------------------------------------------------------------|
 |                                                                           |
 |        CP Time      (sec) =          3.797       Time  =  15:49:01        |
 |        Elapsed Time (sec) =          5.000       Date  =  03/09/2022      |
 |                                                                           |
 *---------------------------------------------------------------------------*
